3D Atomistic (3)
  MatStudio         3D                             0

  7  7  0  0  0  0  0  0  0  0999 V2000
    5.3461    6.9978   16.6101 O   0  6  0  0  0  0  0  0  0  0
    6.9672    5.0786   16.1037 O   0  6  0  0  0  0  0  0  0  0
    3.2201    5.0198   16.2974 O   0  6  0  0  0  0  0  0  0  0
    2.9622    1.4998   15.4580 O   0  6  0  0  0  0  0  0  0  0
    5.0906    5.2753   16.1942 Al  0  1  0  0  0  0  0  0  0  0
    3.3812    3.2592   15.7623 Al  0  1  0  0  0  0  0  0  0  0
    5.1442    3.4024   16.1222 O   0  6  0  0  0  0  0  0  0  0
  1  5  1  0  0  0
  2  5  1  0  0  0
  3  5  1  0  0  0
  7  5  1  0  0  0
  7  6  1  0  0  0
  3  6  1  0  0  0
  4  6  1  0  0  0
M  END

